&HEAD CHID='simple_chemistry_methane', TITLE='Example of default simple chemistry in FDS'/
&MESH IJK=4,4,4, XB=0,1,0,1,0,1/
&TIME T_END=0.001/
&REAC FUEL='METHANE'/
&TAIL/