&HEAD CHID='test_pilot', TITLE='UMD Line Burner, propane' /

&MESH IJK=34,24,45, XB=-0.425,0.425,-0.3,0.3,-0.0125,1.1125/ 1 mesh

&TIME T_END=10. /

&DUMP RESULTS_DIR='test_pilot'/

&SPEC ID='NITROGEN' /

! &COMB ZZ_MIN_GLOBAL=1.E-5/

&SPEC ID='PROPANE PILOT', SPEC_ID='PROPANE', MASS_FRACTION=1/
&REAC PRIORITY=1, FUEL='PROPANE PILOT'/
&REAC PRIORITY=2, FUEL='PROPANE', AUTO_IGNITION_TEMPERATURE=450., SOOT_YIELD=0.024, CO_YIELD=0.005 / SFPE Table 2-8.2

&SURF ID='BURNER', HRRPUA=2000, SPEC_ID='PROPANE PILOT','PROPANE', MASS_FRACTION=0.001,0.999, COLOR='RED' / HRRPUA=2000 kJ/s/m2


&SURF ID='COFLOW', COLOR='BLUE',
      SPEC_ID(1)='AIR',      MASS_FLUX(1)=0.245, RAMP_MF(1)='O2 RAMP'
      SPEC_ID(2)='NITROGEN', MASS_FLUX(2)=0.257, RAMP_MF(2)='N2 RAMP' /
&RAMP ID='O2 RAMP', T= 0.0, F=1.00 /
&RAMP ID='O2 RAMP', T=10.0, F=1.00 /
&RAMP ID='N2 RAMP', T= 0.0, F=0.00 /
&RAMP ID='N2 RAMP', T=10.0, F=1.00 /

&OBST XB=-0.25,0.25,-0.025,0.025,-0.0125,0.0, SURF_IDS='BURNER','INERT','INERT' /

&OBST XB=-0.425,0.425,-0.30,-0.25,-0.0125,0.0 /
&OBST XB=-0.425,0.425, 0.25, 0.30,-0.0125,0.0 /

&OBST XB=-0.425,-0.375,-0.25,0.25,-0.0125,0.0 /
&OBST XB= 0.375, 0.425,-0.25,0.25,-0.0125,0.0 /

&MATL ID='KAOWOOL', CONDUCTIVITY=0.07, DENSITY=220, SPECIFIC_HEAT=1.1 /
&SURF ID='CERAMIC BOARD', COLOR='IVORY', MATL_ID='KAOWOOL', THICKNESS=0.05 /
&VENT SURF_ID='CERAMIC BOARD' XB=-0.30,0.30,-0.075,0.075,-0.0124,-0.0124/
&VENT SURF_ID='COFLOW', XB=-0.375,0.375,-0.25,0.25,-0.0125,-0.0125/

&VENT DB='XMAX',SURF_ID='OPEN'/
&VENT DB='XMIN',SURF_ID='OPEN'/
&VENT DB='YMAX',SURF_ID='OPEN'/
&VENT DB='YMIN',SURF_ID='OPEN'/
&VENT DB='ZMAX',SURF_ID='OPEN'/
&VENT DB='ZMIN',SURF_ID='OPEN'/

&SLCF PBY=0.001, QUANTITY = 'VELOCITY', VECTOR=.TRUE./
&SLCF PBY=0.001, QUANTITY = 'TEMPERATURE', CELL_CENTERED=.TRUE./
&SLCF PBY=0.001, QUANTITY = 'HRRPUV', CELL_CENTERED=.TRUE./
&SLCF PBY=0.001, QUANTITY = 'VOLUME FRACTION', SPEC_ID='PROPANE', CELL_CENTERED=.TRUE./
&SLCF PBY=0.001, QUANTITY = 'VOLUME FRACTION', SPEC_ID='PROPANE PILOT', CELL_CENTERED=.TRUE./
&SLCF PBY=0.001, QUANTITY = 'VOLUME FRACTION', SPEC_ID='OXYGEN', CELL_CENTERED=.TRUE./

&SLCF PBX=0.001, QUANTITY = 'VELOCITY', VECTOR=.TRUE./
&SLCF PBX=0.001, QUANTITY = 'TEMPERATURE', CELL_CENTERED=.TRUE./
&SLCF PBX=0.001, QUANTITY = 'HRRPUV', CELL_CENTERED=.TRUE./
&SLCF PBX=0.001, QUANTITY = 'VOLUME FRACTION', SPEC_ID='PROPANE', CELL_CENTERED=.TRUE./
&SLCF PBX=0.001, QUANTITY = 'VOLUME FRACTION', SPEC_ID='PROPANE PILOT', CELL_CENTERED=.TRUE./
&SLCF PBX=0.001, QUANTITY = 'VOLUME FRACTION', SPEC_ID='OXYGEN', CELL_CENTERED=.TRUE./

&TAIL/
